Version 4
SHEET 1 1004 1260
WIRE -544 -160 -544 -192
WIRE -432 -160 -432 -192
WIRE -352 64 -448 64
WIRE -208 64 -272 64
WIRE -112 64 -128 64
WIRE -448 208 -448 64
WIRE -352 208 -448 208
WIRE -112 208 -112 64
WIRE -112 208 -272 208
WIRE 48 208 -32 208
WIRE -448 432 -448 208
WIRE -352 432 -448 432
WIRE 48 432 48 208
WIRE 48 432 -272 432
WIRE 160 432 128 432
WIRE -448 768 -448 432
WIRE -320 768 -448 768
WIRE 160 768 160 432
WIRE 160 768 -240 768
WIRE 288 768 240 768
WIRE -576 912 -672 912
WIRE -448 912 -448 768
WIRE -448 912 -496 912
WIRE -80 912 -448 912
WIRE 288 928 288 768
WIRE 288 928 -16 928
WIRE -672 944 -672 912
WIRE -80 944 -128 944
WIRE -128 1040 -128 944
WIRE -384 1136 -416 1136
FLAG -432 -80 0
FLAG -544 -80 0
FLAG -544 -192 Vcc
FLAG -432 -192 -Vcc
FLAG -48 896 Vcc
FLAG -48 960 -Vcc
FLAG -672 944 0
FLAG -416 1216 0
FLAG 48 -176 0
FLAG 48 -256 S1
FLAG 176 -176 0
FLAG 176 -256 S2
FLAG 304 -176 0
FLAG 304 -256 S3
FLAG 432 -176 0
FLAG 432 -256 S4
FLAG -304 816 0
FLAG -336 480 0
FLAG -336 256 0
FLAG -336 112 0
FLAG -288 112 S4
FLAG -288 256 S3
FLAG -288 480 S2
FLAG -256 816 S1
FLAG 288 928 out_3
IOPIN 288 928 Out
FLAG -128 1040 in_3
IOPIN -128 1040 In
FLAG -384 1136 in_3
IOPIN -384 1136 In
SYMBOL voltage -416 1120 R0
WINDOW 0 38 45 Left 2
WINDOW 123 24 124 Left 2
WINDOW 39 0 0 Left 0
SYMATTR InstName V1
SYMATTR Value2 AC 1
SYMATTR Value SINE(0 752mV 3000)
SYMBOL OpAmps\\ADTL082 -48 864 R0
SYMATTR InstName U1
SYMBOL voltage -544 -176 R0
WINDOW 123 0 0 Left 2
WINDOW 39 0 0 Left 2
SYMATTR InstName V2
SYMATTR Value 15V
SYMBOL voltage -432 -176 R0
WINDOW 123 0 0 Left 2
WINDOW 39 0 0 Left 2
SYMATTR InstName V3
SYMATTR Value -15V
SYMBOL res -480 896 R90
WINDOW 0 0 56 VBottom 2
WINDOW 3 32 56 VTop 2
SYMATTR InstName RG
SYMATTR Value 10k
SYMBOL res 256 752 R90
WINDOW 0 0 56 VBottom 2
WINDOW 3 32 56 VTop 2
SYMATTR InstName R1
SYMATTR Value 10k
SYMBOL res 144 416 R90
WINDOW 0 0 56 VBottom 2
WINDOW 3 32 56 VTop 2
SYMATTR InstName R2
SYMATTR Value 5.1k
SYMBOL res -16 192 R90
WINDOW 0 0 56 VBottom 2
WINDOW 3 32 56 VTop 2
SYMATTR InstName R3
SYMATTR Value 6.5k
SYMBOL res -112 48 R90
WINDOW 0 0 56 VBottom 2
WINDOW 3 32 56 VTop 2
SYMATTR InstName R4
SYMATTR Value 8.4k
SYMBOL voltage 48 -272 R0
WINDOW 123 0 0 Left 0
WINDOW 39 0 0 Left 0
SYMATTR InstName V4
SYMATTR Value 1
SYMBOL voltage 176 -272 R0
WINDOW 123 0 0 Left 0
WINDOW 39 0 0 Left 0
SYMATTR InstName V5
SYMATTR Value 0
SYMBOL voltage 304 -272 R0
WINDOW 123 0 0 Left 0
WINDOW 39 0 0 Left 0
SYMATTR InstName V6
SYMATTR Value 0
SYMBOL voltage 432 -272 R0
WINDOW 123 0 0 Left 0
WINDOW 39 0 0 Left 0
WINDOW 3 24 44 Left 2
SYMATTR InstName V7
SYMATTR Value 0
SYMBOL sw -336 768 R270
SYMATTR InstName S1
SYMATTR Value MYSW
SYMBOL sw -368 432 R270
SYMATTR InstName S2
SYMATTR Value MYSW
SYMBOL sw -368 208 R270
SYMATTR InstName S3
SYMATTR Value MYSW
SYMBOL sw -368 64 R270
SYMATTR InstName S4
SYMATTR Value MYSW
TEXT 328 -80 Left 2 ;.op
TEXT 336 -40 Left 2 ;.ac dec 100 1 10Meg
TEXT -64 -360 Left 2 !.model MYSW SW(Ron=1m Roff=1Meg Vt=0.5 Vh=0))
TEXT 336 0 Left 2 !.four 3000 V(out_3)
TEXT 328 24 Left 2 !.tran 0 5m 0
